*Heading
** Job name: Job-8 Model name: Cylinder_2
** Generated by: Abaqus/CAE 2025
*Preprint, echo=NO, model=NO, history=NO, contact=NO
**
** PARTS
**
*Part, name=Part-1
*End Part
**  
**
** ASSEMBLY
**
*Assembly, name=Assembly
**  
*Instance, name=Part-1-1, part=Part-1
*Node
      1, 0.00474999985,           0., 0.00634999992
      2, 0.00474999985,           0., 0.0126999998
      3, 0.00474999985,           0.,           0.
      4, 0.00471254485, 0.00059533288, 0.00634999992
      5, 0.00460076984, 0.00118127698, 0.00634999992
      6, 0.00441643829, 0.00174859166, 0.00634999992
      7, 0.00416245684, 0.00228832988, 0.00634999992
      8, 0.00384283066, 0.00279198005, 0.00634999992
      9, 0.00346260099, 0.00325159868, 0.00634999992
     10, 0.00302776392,  0.003659938, 0.00634999992
     11, 0.00254517724, 0.00401055766, 0.00634999992
     12, 0.00202245172, 0.00429792842, 0.00634999992
     13, 0.00146783073, 0.00451751845, 0.00634999992
     14, 0.000890061259, 0.00466586463, 0.00634999992
     15, 0.000298254978, 0.00474062702, 0.00634999992
     16, -0.000298254978, 0.00474062702, 0.00634999992
     17, -0.000890061259, 0.00466586463, 0.00634999992
     18, -0.00146783073, 0.00451751845, 0.00634999992
     19, -0.00202245172, 0.00429792842, 0.00634999992
     20, -0.00254517724, 0.00401055766, 0.00634999992
** ... 6949 like lines cut
*Element, type=C3D8R
   1,   12,  165,  155,   11,  666, 1924, 1914,  665
   2,  361,  364,  225,  207, 2120, 2123, 1984, 1966
   3,  151,   18,   19,  200, 1910,  672,  673, 1959
   4,  168,   21,   22,  202, 1927,  675,  676, 1961
   5,  238,  285,  221,  186, 1997, 2044, 1980, 1945
   6,   26,  152,  170,   25,  680, 1911, 1929,  679
   7,  232,  215,  223,  235, 1991, 1974, 1982, 1994
   8,  204,   30,   31,  172, 1963,  684,  685, 1931
   9,  199,  338,  217,  172, 1958, 2097, 1976, 1931
  10,  153,   34,   35,  197, 1912,  688,  689, 1956
  11,  174,   37,   38,  206, 1933,  691,  692, 1965
  12,  320,  224,  248,  253, 2079, 1983, 2007, 2012
  13,   43,  156,  176,   42,  697, 1915, 1935,  696
  14,  156,   43,   44,  177, 1915,  697,  698, 1936
  15,  162,    6,    7,  195, 1921,  660,  661, 1954
  16,  163,    8,    9,  196, 1922,  662,  663, 1955
  17,   11,  155,  164,   10,  665, 1914, 1923,  664
  18,  198,   13,   14,  166, 1957,  667,  668, 1925
  19,   47,  157,  178,   46,  701, 1916, 1937,  700
  20,  172,  217,  219,  204, 1931, 1976, 1978, 1963
** ... 6074 like lines cut
*Nset, nset=_PickedSet4, internal, generate
    1,  6969,     1
*Elset, elset=_PickedSet4, internal, generate
    1,  6094,     1
*Nset, nset=Set-1
  1,  4,  5,  6,  7,  8,  9, 10, 11, 12, 13, 14, 15, 16, 17, 18
 19, 20, 21, 22, 23, 24, 25, 26, 27, 28, 29, 30, 31, 32, 33, 34
 35, 36, 37, 38, 39, 40, 41, 42, 43, 44, 45, 46, 47, 48, 49, 50
 51, 52
*Elset, elset=Set-1
    1,    3,    4,    6,    8,   10,   11,   13,   14,   15,   16,   17,   18,   19,   24,   26
   29,   30,   31,   32,   33,   34,   35,   37,   39,   40,   43,   44,   45,   48,   49,   50
   51,   52,   54,   55,   56,   58,   60,   64,   71,   72,   76,   77,   81,  103,  104,  105
  106,  108, 3048, 3050, 3051, 3053, 3055, 3057, 3058, 3060, 3061, 3062, 3063, 3064, 3065, 3066
 3071, 3073, 3076, 3077, 3078, 3079, 3080, 3081, 3082, 3084, 3086, 3087, 3090, 3091, 3092, 3095
 3096, 3097, 3098, 3099, 3101, 3102, 3103, 3105, 3107, 3111, 3118, 3119, 3123, 3124, 3128, 3150
 3151, 3152, 3153, 3155
*Nset, nset=Set-base
   2,  53,  54,  55,  56,  57,  58,  59,  60,  61,  62,  63,  64,  65,  66,  67
  68,  69,  70,  71,  72,  73,  74,  75,  76,  77,  78,  79,  80,  81,  82,  83
  84,  85,  86,  87,  88,  89,  90,  91,  92,  93,  94,  95,  96,  97,  98,  99
 100, 101
*Elset, elset=Set-base
 2771, 2773, 2774, 2776, 2778, 2780, 2781, 2783, 2784, 2785, 2786, 2787, 2788, 2789, 2794, 2796
 2799, 2800, 2801, 2802, 2803, 2804, 2805, 2807, 2809, 2810, 2813, 2814, 2815, 2818, 2819, 2820
 2821, 2822, 2824, 2825, 2826, 2828, 2830, 2834, 2841, 2842, 2846, 2847, 2851, 2873, 2874, 2875
 2876, 2878
*Nset, nset=Set-top
   3, 102, 103, 104, 105, 106, 107, 108, 109, 110, 111, 112, 113, 114, 115, 116
 117, 118, 119, 120, 121, 122, 123, 124, 125, 126, 127, 128, 129, 130, 131, 132
 133, 134, 135, 136, 137, 138, 139, 140, 141, 142, 143, 144, 145, 146, 147, 148
 149, 150
*Elset, elset=Set-top
 5818, 5820, 5821, 5823, 5825, 5827, 5828, 5830, 5831, 5832, 5833, 5834, 5835, 5836, 5841, 5843
 5846, 5847, 5848, 5849, 5850, 5851, 5852, 5854, 5856, 5857, 5860, 5861, 5862, 5865, 5866, 5867
 5868, 5869, 5871, 5872, 5873, 5875, 5877, 5881, 5888, 5889, 5893, 5894, 5898, 5920, 5921, 5922
 5923, 5925
** Section: Section-1
*Solid Section, elset=_PickedSet4, material="JC Steel"
,
*End Instance
**  
*Nset, nset=Set-2, instance=Part-1-1, generate
    1,  6969,     1
*Elset, elset=Set-2, instance=Part-1-1, generate
    1,  6094,     1
*Nset, nset=Set-3, instance=Part-1-1
    3,  102,  103,  104,  105,  106,  107,  108,  109,  110,  111,  112,  113,  114,  115,  116
  117,  118,  119,  120,  121,  122,  123,  124,  125,  126,  127,  128,  129,  130,  131,  132
  133,  134,  135,  136,  137,  138,  139,  140,  141,  142,  143,  144,  145,  146,  147,  148
  149,  150, 1157, 1158, 1159, 1160, 1161, 1162, 1163, 1164, 1165, 1166, 1167, 1168, 1169, 1170
 1171, 1172, 1173, 1174, 1175, 1176, 1177, 1178, 1179, 1180, 1181, 1182, 1183, 1184, 1185, 1186
 1187, 1188, 1189, 1190, 1191, 1192, 1193, 1194, 1195, 1196, 1197, 1198, 1199, 1200, 1201, 1202
 1203, 1204, 1205, 1206, 1207, 1208, 1209, 1210, 1211, 1212, 1213, 1214, 1215, 1216, 1217, 1218
 1219, 1220, 1221, 1222, 1223, 1224, 1225, 1226, 1227, 1228, 1229, 1230, 1231, 1232, 1233, 1234
 1235, 1236, 1237, 1238, 1239, 1240, 1241, 1242, 1243, 1244, 1245, 1246, 1247, 1248, 1249, 1250
 1251, 1252, 1253, 1254, 1255, 1256, 1257, 1258, 1259, 1260, 1261, 1262, 1263, 1264, 1265, 1266
 1267, 1268, 1269, 1270, 1271, 1272, 1273, 1274, 1275, 1276, 1277, 1278, 1279, 1280, 1281, 1282
 1283, 1284, 1285, 1286, 1287, 1288, 1289, 1290, 1291, 1292, 1293, 1294, 1295, 1296, 1297, 1298
 1299, 1300, 1301, 1302, 1303, 1304, 1305, 1306, 1307, 1308, 1309, 1310, 1311, 1312, 1313, 1314
 1315, 1316, 1317, 1318, 1319, 1320, 1321, 1322, 1323, 1324, 1325, 1326, 1327, 1328, 1329, 1330
 1331, 1332, 1333, 1334, 1335, 1336, 1337, 1338, 1339, 1340, 1341, 1342, 1343, 1344, 1345, 1346
 1347, 1348, 1349, 1350, 1351, 1352, 1353, 1354, 1355, 1356, 1357, 1358, 1359, 1360, 1361, 1362
 1363, 1364, 1365, 1366, 1367, 1368, 1369, 1370, 1371, 1372, 1373, 1374, 1375, 1376, 1377, 1378
 1379, 1380, 1381, 1382, 1383, 1384, 1385, 1386, 1387, 1388, 1389, 1390, 1391, 1392, 1393, 1394
 1395, 1396, 1397, 1398, 1399, 1400, 1401, 1402, 1403, 1404, 1405, 1406, 1407, 1408, 1409
*Elset, elset=Set-3, instance=Part-1-1, generate
 5818,  6094,     1
*Nset, nset=_PickedSet6, internal, instance=Part-1-1
   2,  53,  54,  55,  56,  57,  58,  59,  60,  61,  62,  63,  64,  65,  66,  67
  68,  69,  70,  71,  72,  73,  74,  75,  76,  77,  78,  79,  80,  81,  82,  83
  84,  85,  86,  87,  88,  89,  90,  91,  92,  93,  94,  95,  96,  97,  98,  99
 100, 101, 404, 405, 406, 407, 408, 409, 410, 411, 412, 413, 414, 415, 416, 417
 418, 419, 420, 421, 422, 423, 424, 425, 426, 427, 428, 429, 430, 431, 432, 433
 434, 435, 436, 437, 438, 439, 440, 441, 442, 443, 444, 445, 446, 447, 448, 449
 450, 451, 452, 453, 454, 455, 456, 457, 458, 459, 460, 461, 462, 463, 464, 465
 466, 467, 468, 469, 470, 471, 472, 473, 474, 475, 476, 477, 478, 479, 480, 481
 482, 483, 484, 485, 486, 487, 488, 489, 490, 491, 492, 493, 494, 495, 496, 497
 498, 499, 500, 501, 502, 503, 504, 505, 506, 507, 508, 509, 510, 511, 512, 513
 514, 515, 516, 517, 518, 519, 520, 521, 522, 523, 524, 525, 526, 527, 528, 529
 530, 531, 532, 533, 534, 535, 536, 537, 538, 539, 540, 541, 542, 543, 544, 545
 546, 547, 548, 549, 550, 551, 552, 553, 554, 555, 556, 557, 558, 559, 560, 561
 562, 563, 564, 565, 566, 567, 568, 569, 570, 571, 572, 573, 574, 575, 576, 577
 578, 579, 580, 581, 582, 583, 584, 585, 586, 587, 588, 589, 590, 591, 592, 593
 594, 595, 596, 597, 598, 599, 600, 601, 602, 603, 604, 605, 606, 607, 608, 609
 610, 611, 612, 613, 614, 615, 616, 617, 618, 619, 620, 621, 622, 623, 624, 625
 626, 627, 628, 629, 630, 631, 632, 633, 634, 635, 636, 637, 638, 639, 640, 641
 642, 643, 644, 645, 646, 647, 648, 649, 650, 651, 652, 653, 654, 655, 656
*Elset, elset=_PickedSet6, internal, instance=Part-1-1, generate
 2771,  3047,     1
*End Assembly
*Amplitude, name=Amp-1
             0.,              0.,              236.2,              1.
** 
** MATERIALS
** 
*Material, name="JC Steel"
*Elastic
 7.0e+10, 0.33
*Plastic, hardening=JOHNSON COOK
1.2e+08, 1e+08, 0.5195, 2,   911., 298 
** 
** BOUNDARY CONDITIONS
** 
** Name: BC-1 Type: Displacement/Rotation
*Boundary
_PickedSet6, 1, 1
_PickedSet6, 2, 2
_PickedSet6, 3, 3
** 
** PREDEFINED FIELDS
** 
** Name: Predefined Field-1   Type: Temperature
*Initial Conditions, type=TEMPERATURE
Set-2, 773.
** ----------------------------------------------------------------
** 
** STEP: Ramp
** 
*Step, name=Ramp, nlgeom=YES, inc=1000
*Static
1., 236.2, .01, 10.
** 0.001, 0.2362, 0.00001, 0.01
** 
** BOUNDARY CONDITIONS
** 
** Name: BC-2 Type: Displacement/Rotation
*Boundary, amplitude=Amp-1
Set-3, 3, 3, 0.003
** 
** OUTPUT REQUESTS
** 
*Restart, write, frequency=0
** 
** FIELD OUTPUT: F-Output-2
** 
*Output, field, frequency=1
*Node Output, nset=Part-1-1.Set-1
U, UR, RF
*Element Output, elset=Part-1-1.Set-1, directions=YES
E, S, LE
** 
** FIELD OUTPUT: F-Output-1
** 
*Output, field, frequency=1
*Node Output, nset=Part-1-1.Set-1
U, UR, RF
*Element Output, elset=Part-1-1.Set-1, directions=YES
E, S, LE
** 
** HISTORY OUTPUT: H-Output-2
** 
*Output, history, frequency=1
*Node Output, nset=Part-1-1.Set-1
U3, RF
*Element Output, elset=Part-1-1.Set-1, directions=YES
E, S33, LE
** 
** HISTORY OUTPUT: H-Output-1
** 
*Output, history, frequency=1
*Node Output, nset=Part-1-1.Set-1
  U, RF
*End Step
